@<TRIPOS>MOLECULE
*****
 24 27 0 0 0
SMALL
GASTEIGER

@<TRIPOS>ATOM
      1 O          -4.0840    0.4407   -0.4061 O.2     1  UNL1       -0.2444
      2 C          -2.9189    0.9333   -0.2980 C.2     1  UNL1        0.3474
      3 O          -2.6822    2.2925   -0.2919 O.3     1  UNL1       -0.3860
      4 C          -1.3846    2.7535   -0.1704 C.2     1  UNL1        0.3474
      5 O          -1.1321    4.0133   -0.1614 O.2     1  UNL1       -0.2444
      6 C          -0.3038    1.7889   -0.0522 C.ar    1  UNL1        0.0680
      7 C           0.9901    2.2598    0.0688 C.ar    1  UNL1       -0.0463
      8 C           2.0237    1.3672    0.1813 C.ar    1  UNL1       -0.0463
      9 C           1.8134   -0.0061    0.1780 C.ar    1  UNL1        0.0680
     10 C           0.5182   -0.4680    0.0567 C.ar    1  UNL1        0.0116
     11 C           0.2910   -1.8247    0.0515 C.ar    1  UNL1        0.0680
     12 C          -1.0058   -2.2689   -0.0702 C.ar    1  UNL1       -0.0463
     13 C          -2.0593   -1.3848   -0.1846 C.ar    1  UNL1       -0.0463
     14 C          -1.8176   -0.0308   -0.1779 C.ar    1  UNL1        0.0680
     15 C          -0.5406    0.4348   -0.0585 C.ar    1  UNL1        0.0116
     16 C           1.4014   -2.7409    0.1718 C.2     1  UNL1        0.3474
     17 O           1.1654   -3.9724    0.1641 O.2     1  UNL1       -0.2444
     18 O           2.7179   -2.2701    0.2951 O.3     1  UNL1       -0.3860
     19 C           2.9595   -0.9191    0.3018 C.2     1  UNL1        0.3474
     20 O           4.1129   -0.4077    0.4085 O.2     1  UNL1       -0.2444
     21 H           1.1755    3.3423    0.0734 H       1  UNL1        0.0626
     22 H           3.0287    1.7187    0.2755 H       1  UNL1        0.0626
     23 H          -1.1833   -3.3280   -0.0743 H       1  UNL1        0.0626
     24 H          -3.0856   -1.7234   -0.2810 H       1  UNL1        0.0626
@<TRIPOS>BOND
     1     1     2    2
     2     2     3    1
     3     3     4    1
     4     4     5    2
     5     4     6    1
     6     6     7   ar
     7     7     8   ar
     8     8     9   ar
     9     9    10   ar
    10    10    11   ar
    11    11    12   ar
    12    12    13   ar
    13    13    14   ar
    14    14    15   ar
    15    11    16    1
    16    16    17    2
    17    16    18    1
    18    18    19    1
    19    19    20    2
    20     2    14    1
    21     6    15   ar
    22     9    19    1
    23    10    15   ar
    24     7    21    1
    25     8    22    1
    26    12    23    1
    27    13    24    1
