@<TRIPOS>MOLECULE
*****
 48 52 0 0 0
SMALL
GASTEIGER

@<TRIPOS>ATOM
      1 C          -2.6879    2.6088   -0.7984 C.ar    1  UNL1        0.0396
      2 C          -3.3508    3.8774   -1.2155 C.3     1  UNL1       -0.0223
      3 C          -3.4580    1.5332   -0.4207 C.ar    1  UNL1       -0.0323
      4 C          -2.7642    0.3731   -0.0406 C.ar    1  UNL1       -0.0070
      5 C          -3.5436   -0.7677    0.4053 C.ar    1  UNL1       -0.0172
      6 C          -3.3518   -1.3258    1.6442 C.ar    1  UNL1       -0.0540
      7 C          -4.1081   -2.4156    2.0222 C.ar    1  UNL1       -0.0612
      8 C          -5.0662   -2.9657    1.1736 C.ar    1  UNL1       -0.0617
      9 C          -5.2578   -2.4093   -0.0612 C.ar    1  UNL1       -0.0612
     10 C          -4.5089   -1.3288   -0.4381 C.ar    1  UNL1       -0.0540
     11 C          -1.3873    0.3106   -0.0457 C.ar    1  UNL1        0.0102
     12 C          -0.6906   -0.8323    0.3150 C.ar    1  UNL1       -0.0513
     13 C           0.6959   -0.8820    0.2955 C.ar    1  UNL1       -0.0513
     14 C           1.3983    0.2293   -0.0923 C.ar    1  UNL1        0.0102
     15 C           2.7723    0.2585   -0.1276 C.ar    1  UNL1       -0.0070
     16 C           3.5296   -0.9179    0.2051 C.ar    1  UNL1       -0.0172
     17 C           4.5054   -0.9049    1.1763 C.ar    1  UNL1       -0.0540
     18 C           5.2553   -2.0232    1.4786 C.ar    1  UNL1       -0.0612
     19 C           5.0318   -3.1934    0.7968 C.ar    1  UNL1       -0.0617
     20 C           4.0563   -3.2437   -0.1890 C.ar    1  UNL1       -0.0612
     21 C           3.3230   -2.0955   -0.4634 C.ar    1  UNL1       -0.0540
     22 C           3.3697    1.4401   -0.5236 C.ar    1  UNL1       -0.0323
     23 C           2.6495    2.5455   -0.8712 C.ar    1  UNL1        0.0396
     24 C           3.4001    3.7843   -1.2885 C.3     1  UNL1       -0.0223
     25 N           1.3117    2.5158   -0.8378 N.ar    1  UNL1       -0.2497
     26 C           0.6915    1.3751   -0.4542 C.ar    1  UNL1        0.0977
     27 C          -0.6922    1.4348   -0.4382 C.ar    1  UNL1        0.0977
     28 N          -1.3469    2.5664   -0.8083 N.ar    1  UNL1       -0.2497
     29 H          -4.4435    3.7425   -1.3539 H       1  UNL1        0.0292
     30 H          -3.1012    4.6902   -0.5100 H       1  UNL1        0.0292
     31 H          -2.9121    4.1635   -2.2006 H       1  UNL1        0.0292
     32 H          -4.5358    1.5518   -0.4076 H       1  UNL1        0.0642
     33 H          -2.6241   -0.9223    2.3326 H       1  UNL1        0.0624
     34 H          -3.9348   -2.8265    2.9914 H       1  UNL1        0.0618
     35 H          -5.6267   -3.8122    1.5157 H       1  UNL1        0.0618
     36 H          -6.0071   -2.8494   -0.7085 H       1  UNL1        0.0618
     37 H          -4.6798   -0.9121   -1.4124 H       1  UNL1        0.0624
     38 H          -1.2339   -1.7304    0.6119 H       1  UNL1        0.0624
     39 H           1.1854   -1.7981    0.5999 H       1  UNL1        0.0624
     40 H           4.6957    0.0147    1.7266 H       1  UNL1        0.0624
     41 H           6.0136   -2.0043    2.2367 H       1  UNL1        0.0618
     42 H           5.6070   -4.1046    1.0079 H       1  UNL1        0.0618
     43 H           3.8749   -4.1558   -0.7275 H       1  UNL1        0.0618
     44 H           2.5851   -2.2035   -1.2492 H       1  UNL1        0.0624
     45 H           4.4498    1.4894   -0.5588 H       1  UNL1        0.0642
     46 H           3.8425    4.2916   -0.4264 H       1  UNL1        0.0292
     47 H           4.2634    3.4107   -1.9138 H       1  UNL1        0.0292
     48 H           2.8057    4.4177   -1.9523 H       1  UNL1        0.0292
@<TRIPOS>BOND
     1     1     2    1
     2     1     3   ar
     3     3     4   ar
     4     4     5    1
     5     5     6   ar
     6     6     7   ar
     7     7     8   ar
     8     8     9   ar
     9     9    10   ar
    10     4    11   ar
    11    11    12   ar
    12    12    13   ar
    13    13    14   ar
    14    14    15   ar
    15    15    16    1
    16    16    17   ar
    17    17    18   ar
    18    18    19   ar
    19    19    20   ar
    20    20    21   ar
    21    15    22   ar
    22    22    23   ar
    23    23    24    1
    24    23    25   ar
    25    25    26   ar
    26    26    27   ar
    27    27    28   ar
    28     1    28   ar
    29     5    10   ar
    30    11    27   ar
    31    14    26   ar
    32    16    21   ar
    33     2    29    1
    34     2    30    1
    35     2    31    1
    36     3    32    1
    37     6    33    1
    38     7    34    1
    39     8    35    1
    40     9    36    1
    41    10    37    1
    42    12    38    1
    43    13    39    1
    44    17    40    1
    45    18    41    1
    46    19    42    1
    47    20    43    1
    48    21    44    1
    49    22    45    1
    50    24    46    1
    51    24    47    1
    52    24    48    1
