@<TRIPOS>MOLECULE
*****
 70 77 0 0 0
SMALL
GASTEIGER

@<TRIPOS>ATOM
      1 C           5.1928    1.2163   -0.6397 C.ar    1  UNL1       -0.0612
      2 C           3.8342    1.1040   -0.8611 C.ar    1  UNL1       -0.0540
      3 C           2.9597    1.0448    0.1782 C.ar    1  UNL1       -0.0167
      4 C           1.5112    1.0483    0.1134 C.ar    1  UNL1       -0.0018
      5 C           0.7192   -0.0554   -0.0071 C.ar    1  UNL1       -0.0001
      6 C          -0.7368    0.0775   -0.0023 C.ar    1  UNL1       -0.0001
      7 C          -1.2791    1.3123    0.1197 C.ar    1  UNL1       -0.0018
      8 C          -2.6891    1.6195    0.1219 C.ar    1  UNL1       -0.0167
      9 C          -3.5175    1.5591    1.1979 C.ar    1  UNL1       -0.0540
     10 C          -4.8392    2.0047    1.1019 C.ar    1  UNL1       -0.0612
     11 C          -5.3390    2.5153   -0.0776 C.ar    1  UNL1       -0.0617
     12 C          -4.4990    2.5775   -1.1708 C.ar    1  UNL1       -0.0612
     13 C          -3.2181    2.1430   -1.0696 C.ar    1  UNL1       -0.0540
     14 C          -0.4255    2.4320    0.2402 C.ar    1  UNL1       -0.0090
     15 C          -1.0084    3.6827    0.3630 C.ar    1  UNL1       -0.0534
     16 C          -0.1735    4.7850    0.4811 C.ar    1  UNL1       -0.0611
     17 C           1.1921    4.6581    0.4784 C.ar    1  UNL1       -0.0611
     18 C           1.7702    3.3974    0.3547 C.ar    1  UNL1       -0.0534
     19 C           0.9134    2.3187    0.2388 C.ar    1  UNL1       -0.0090
     20 C          -1.5260   -1.0217   -0.1073 C.ar    1  UNL1       -0.0018
     21 C          -2.9728   -1.0526   -0.0971 C.ar    1  UNL1       -0.0167
     22 C          -3.8144   -0.8350   -1.1428 C.ar    1  UNL1       -0.0540
     23 C          -5.1619   -1.0202   -1.0171 C.ar    1  UNL1       -0.0612
     24 C          -5.6703   -1.4347    0.1915 C.ar    1  UNL1       -0.0617
     25 C          -4.8782   -1.6731    1.2874 C.ar    1  UNL1       -0.0612
     26 C          -3.5261   -1.4783    1.1316 C.ar    1  UNL1       -0.0540
     27 C          -0.9173   -2.2832   -0.2230 C.ar    1  UNL1       -0.0090
     28 C           0.4122   -2.4149   -0.2323 C.ar    1  UNL1       -0.0090
     29 C           1.2576   -1.2953   -0.1249 C.ar    1  UNL1       -0.0018
     30 C           2.6726   -1.5862   -0.2292 C.ar    1  UNL1       -0.0167
     31 C           3.1386   -1.7341   -1.5503 C.ar    1  UNL1       -0.0540
     32 C           4.4358   -2.1180   -1.8030 C.ar    1  UNL1       -0.0612
     33 C           5.3161   -2.3691   -0.7943 C.ar    1  UNL1       -0.0617
     34 C           4.8625   -2.2252    0.4989 C.ar    1  UNL1       -0.0612
     35 C           3.5615   -1.8402    0.7600 C.ar    1  UNL1       -0.0540
     36 C           1.0015   -3.6450   -0.3453 C.ar    1  UNL1       -0.0534
     37 C           0.1915   -4.7595   -0.4507 C.ar    1  UNL1       -0.0611
     38 C          -1.1807   -4.6759   -0.4460 C.ar    1  UNL1       -0.0611
     39 C          -1.7458   -3.4106   -0.3297 C.ar    1  UNL1       -0.0534
     40 C           3.5021    1.1038    1.4763 C.ar    1  UNL1       -0.0540
     41 C           4.8464    1.2151    1.6892 C.ar    1  UNL1       -0.0612
     42 C           5.7164    1.2732    0.6379 C.ar    1  UNL1       -0.0617
     43 H           5.9074    1.2646   -1.4601 H       1  UNL1        0.0618
     44 H           3.4505    1.0733   -1.8914 H       1  UNL1        0.0624
     45 H          -3.1312    1.1640    2.1447 H       1  UNL1        0.0624
     46 H          -5.4407    1.9306    1.9844 H       1  UNL1        0.0618
     47 H          -6.3663    2.8609   -0.1483 H       1  UNL1        0.0618
     48 H          -4.8782    2.9805   -2.1165 H       1  UNL1        0.0618
     49 H          -2.5729    2.1967   -1.9293 H       1  UNL1        0.0624
     50 H          -2.0672    3.7717    0.3653 H       1  UNL1        0.0624
     51 H          -0.6314    5.7804    0.5788 H       1  UNL1        0.0618
     52 H           1.8678    5.4960    0.5683 H       1  UNL1        0.0618
     53 H           2.8309    3.2592    0.3482 H       1  UNL1        0.0624
     54 H          -3.3775   -0.5195   -2.0791 H       1  UNL1        0.0624
     55 H          -5.8597   -0.8490   -1.8519 H       1  UNL1        0.0618
     56 H          -6.7241   -1.5749    0.2723 H       1  UNL1        0.0618
     57 H          -5.3068   -1.9990    2.2258 H       1  UNL1        0.0618
     58 H          -2.8914   -1.6624    1.9871 H       1  UNL1        0.0624
     59 H           2.4980   -1.5521   -2.3972 H       1  UNL1        0.0624
     60 H           4.7800   -2.2278   -2.8312 H       1  UNL1        0.0618
     61 H           6.3419   -2.6720   -0.9330 H       1  UNL1        0.0618
     62 H           5.5446   -2.4194    1.3156 H       1  UNL1        0.0618
     63 H           3.1857   -1.7287    1.7825 H       1  UNL1        0.0624
     64 H           2.0585   -3.7676   -0.3540 H       1  UNL1        0.0624
     65 H           0.6287   -5.7547   -0.5424 H       1  UNL1        0.0618
     66 H          -1.7822   -5.5679   -0.5304 H       1  UNL1        0.0618
     67 H          -2.8129   -3.3235   -0.3250 H       1  UNL1        0.0624
     68 H           2.8497    1.0610    2.3337 H       1  UNL1        0.0624
     69 H           5.2430    1.2589    2.7053 H       1  UNL1        0.0618
     70 H           6.7667    1.3605    0.8368 H       1  UNL1        0.0618
@<TRIPOS>BOND
     1     1     2   ar
     2     2     3   ar
     3     3     4    1
     4     4     5   ar
     5     5     6   ar
     6     6     7   ar
     7     7     8    1
     8     8     9   ar
     9     9    10   ar
    10    10    11   ar
    11    11    12   ar
    12    12    13   ar
    13     7    14   ar
    14    14    15   ar
    15    15    16   ar
    16    16    17   ar
    17    17    18   ar
    18    18    19   ar
    19     6    20   ar
    20    20    21    1
    21    21    22   ar
    22    22    23   ar
    23    23    24   ar
    24    24    25   ar
    25    25    26   ar
    26    20    27   ar
    27    27    28   ar
    28    28    29   ar
    29    29    30    1
    30    30    31   ar
    31    31    32   ar
    32    32    33   ar
    33    33    34   ar
    34    34    35   ar
    35    28    36   ar
    36    36    37   ar
    37    37    38   ar
    38    38    39   ar
    39     3    40   ar
    40    40    41   ar
    41    41    42   ar
    42     1    42   ar
    43     4    19   ar
    44    21    26   ar
    45    27    39   ar
    46     5    29   ar
    47    30    35   ar
    48     8    13   ar
    49    14    19   ar
    50     1    43    1
    51     2    44    1
    52     9    45    1
    53    10    46    1
    54    11    47    1
    55    12    48    1
    56    13    49    1
    57    15    50    1
    58    16    51    1
    59    17    52    1
    60    18    53    1
    61    22    54    1
    62    23    55    1
    63    24    56    1
    64    25    57    1
    65    26    58    1
    66    31    59    1
    67    32    60    1
    68    33    61    1
    69    34    62    1
    70    35    63    1
    71    36    64    1
    72    37    65    1
    73    38    66    1
    74    39    67    1
    75    40    68    1
    76    41    69    1
    77    42    70    1
