@<TRIPOS>MOLECULE
*****
 60 68 0 0 0
SMALL
GASTEIGER

@<TRIPOS>ATOM
      1 O          -5.4150   -1.2969   -2.0875 O.2     1  UNL1       -0.2692
      2 C          -4.8311   -0.6722   -1.1488 C.2     1  UNL1        0.2583
      3 C          -3.3766   -0.6504   -1.0681 C.ar    1  UNL1        0.0461
      4 C          -2.6994   -1.3292   -2.0448 C.ar    1  UNL1       -0.0484
      5 C          -1.3002   -1.3449   -2.0214 C.ar    1  UNL1       -0.0527
      6 C          -0.6570   -0.6783   -1.0189 C.ar    1  UNL1       -0.0089
      7 C          -1.3646    0.0099   -0.0293 C.ar    1  UNL1       -0.0010
      8 C          -0.7323    0.6881    0.9899 C.ar    1  UNL1       -0.0089
      9 C          -1.4562    1.3601    1.9547 C.ar    1  UNL1       -0.0527
     10 C          -2.8447    1.3557    1.9022 C.ar    1  UNL1       -0.0484
     11 C          -3.5182    0.6905    0.9007 C.ar    1  UNL1        0.0461
     12 C          -2.7570    0.0259   -0.0521 C.ar    1  UNL1        0.0075
     13 C          -4.9836    0.6866    0.8462 C.2     1  UNL1        0.2583
     14 O          -5.6469    1.2922    1.7154 O.2     1  UNL1       -0.2692
     15 N          -5.6515   -0.0067   -0.1966 N.am    1  UNL1       -0.1966
     16 C          -7.0769   -0.0269   -0.2742 C.ar    1  UNL1        0.1206
     17 C          -7.8485   -0.9367    0.4153 C.ar    1  UNL1        0.1859
     18 F          -7.2481   -1.8481    1.1960 F       1  UNL1       -0.2003
     19 C          -9.2372   -0.9335    0.3219 C.ar    1  UNL1        0.1983
     20 F          -9.9850   -1.8415    1.0116 F       1  UNL1       -0.1993
     21 C          -9.8930   -0.0141   -0.4689 C.ar    1  UNL1        0.1992
     22 F         -11.2549   -0.0285   -0.5463 F       1  UNL1       -0.1993
     23 C          -9.1290    0.8979   -1.1608 C.ar    1  UNL1        0.1983
     24 F          -9.7618    1.8078   -1.9426 F       1  UNL1       -0.1993
     25 C          -7.7426    0.8944   -1.0673 C.ar    1  UNL1        0.1859
     26 F          -7.0109    1.7978   -1.7542 F       1  UNL1       -0.2003
     27 C           0.6656    0.6811    1.0263 C.ar    1  UNL1       -0.0089
     28 C           1.3676   -0.0073    0.0365 C.ar    1  UNL1       -0.0010
     29 C           2.7644   -0.0312    0.0485 C.ar    1  UNL1        0.0075
     30 C           3.4218    0.6412    1.0605 C.ar    1  UNL1        0.0461
     31 C           4.8981    0.6366    1.1038 C.2     1  UNL1        0.2583
     32 O           5.4264    1.2708    2.0553 O.2     1  UNL1       -0.2692
     33 N           5.6740   -0.0411    0.1324 N.am    1  UNL1       -0.1966
     34 C           7.0831   -0.0158    0.2188 C.ar    1  UNL1        0.1206
     35 C           7.8213   -1.1621    0.1972 C.ar    1  UNL1        0.1859
     36 F           7.1838   -2.3725    0.0887 F       1  UNL1       -0.2003
     37 C           9.1977   -1.1325    0.2820 C.ar    1  UNL1        0.1983
     38 F           9.9320   -2.2744    0.2606 F       1  UNL1       -0.1993
     39 C           9.8348    0.0864    0.3907 C.ar    1  UNL1        0.1992
     40 F          11.1902    0.1136    0.4737 F       1  UNL1       -0.1993
     41 C           9.1080    1.2583    0.4145 C.ar    1  UNL1        0.1983
     42 F           9.7811    2.4256    0.5221 F       1  UNL1       -0.1993
     43 C           7.7519    1.2074    0.3297 C.ar    1  UNL1        0.1859
     44 F           7.0542    2.3693    0.3548 F       1  UNL1       -0.2003
     45 C           4.9704   -0.7182   -0.8883 C.2     1  UNL1        0.2583
     46 O           5.6253   -1.3377   -1.7784 O.2     1  UNL1       -0.2692
     47 C           3.5004   -0.6976   -0.9078 C.ar    1  UNL1        0.0461
     48 C           2.8506   -1.3707   -1.9205 C.ar    1  UNL1       -0.0484
     49 C           1.4694   -1.3631   -1.9560 C.ar    1  UNL1       -0.0527
     50 C           0.7402   -0.6968   -0.9996 C.ar    1  UNL1       -0.0089
     51 C           2.7146    1.3138    2.0267 C.ar    1  UNL1       -0.0484
     52 C           1.3220    1.3450    2.0256 C.ar    1  UNL1       -0.0527
     53 H          -3.2027   -1.8599   -2.8427 H       1  UNL1        0.0625
     54 H          -0.7728   -1.8748   -2.7838 H       1  UNL1        0.0624
     55 H          -1.0196    1.9000    2.7643 H       1  UNL1        0.0624
     56 H          -3.4356    1.8783    2.6513 H       1  UNL1        0.0625
     57 H           3.4511   -1.8862   -2.6593 H       1  UNL1        0.0625
     58 H           1.0283   -1.9002   -2.7618 H       1  UNL1        0.0624
     59 H           3.2399    1.8436    2.8246 H       1  UNL1        0.0625
     60 H           0.7850    1.8720    2.7829 H       1  UNL1        0.0624
@<TRIPOS>BOND
     1     1     2    2
     2     2     3    1
     3     3     4   ar
     4     4     5   ar
     5     5     6   ar
     6     6     7   ar
     7     7     8   ar
     8     8     9   ar
     9     9    10   ar
    10    10    11   ar
    11    11    12   ar
    12    11    13    1
    13    13    14    2
    14    13    15   am
    15    15    16    1
    16    16    17   ar
    17    17    18    1
    18    17    19   ar
    19    19    20    1
    20    19    21   ar
    21    21    22    1
    22    21    23   ar
    23    23    24    1
    24    23    25   ar
    25    25    26    1
    26     8    27   ar
    27    27    28   ar
    28    28    29   ar
    29    29    30   ar
    30    30    31    1
    31    31    32    2
    32    31    33   am
    33    33    34    1
    34    34    35   ar
    35    35    36    1
    36    35    37   ar
    37    37    38    1
    38    37    39   ar
    39    39    40    1
    40    39    41   ar
    41    41    42    1
    42    41    43   ar
    43    43    44    1
    44    33    45   am
    45    45    46    2
    46    45    47    1
    47    47    48   ar
    48    48    49   ar
    49    49    50   ar
    50    30    51   ar
    51    51    52   ar
    52     2    15   am
    53    16    25   ar
    54    27    52   ar
    55     3    12   ar
    56    28    50   ar
    57     6    50   ar
    58     7    12   ar
    59    29    47   ar
    60    34    43   ar
    61     4    53    1
    62     5    54    1
    63     9    55    1
    64    10    56    1
    65    48    57    1
    66    49    58    1
    67    51    59    1
    68    52    60    1
